Flow Title=IMERG_ECMWF_Forecast_20191021
Program Version=5.05
Use Restart=-1
Restart Filename=Unsteady2D.p01.12OCT2019 2400.rst
Boundary Location=                ,                ,        ,        ,                ,NERegion        ,                ,26                              
Interval=1DAY
Flow Hydrograph= 1029
      12      12      12      11      11      11      10      10      10     399
     140      74      44      27      17      12       9       7       6       5
       5       4       4       4       4      10      69     245      90      47
      27      17      11       8       6       5       4       4       3       3
       3       3       3       3       3       3       2       2       2       2
       2       2       2       2       2       2       2       1       1       1
       1       1     222      88      47      26      26      13     728     190
      88      47      27      16      10       9     587     184    1322     401
     197     108      62    1159     338     203    2966    1046     484     321
     413     947     284     139     725     211     141     245     109      65
      43      31      25      21    2237     940     400     222     908     469
    3707    3024    1063    1284     596     305     178     180      90    1533
     411     191     564     787     377     410     237     166    2267     654
     604     261     188    2874    2576     920     607    2239     715     909
     682    1316     418     223     153    1293     424     232     356     300
     914     448    1523    1810     686     440     242     158     383     313
     186     116     346     149    1060     294    1180     589    3554    2589
    1071     690     414     302     280     174     122     137     148     324
     695    1977     632    3316    1198     704     440     357     319     794
     678    1386     966     438     263     177     422     209    1486    1556
     615     351     413    1126    1048     868     409     249     190     866
     404     341    1574     779     652     429     572    1128     578     305
    1367    3641    6098    3425    1959    1204     623     509     431     235
     178     328     498    1028     430     259     198    2152    1049     523
     787     501     894    1210    1341    1119     566     388     258     323
     730    2317    4409    1298     654     392     274     190     144    1100
     879     829     853     360     230     163     287     146     114     404
     709    2043    2651    1990    1459     633     362     234     170     131
     117      99      90      85      83    1304     619     345     214     152
     118     105    3819    3465     982     470     274     178     128     100
      85      76     124      97      81      72      66      63      60      58
      57      56      54      53      52      51      50      49     414     508
     213     130      91      70      58      50      46      43      41      40
      39      37      37      36      35      34      33      32      32      31
      30      30      82      53      41      35      31      28      26      25
      24      24      23      22      22      21      21      20      20      19
      19      18      18      17      17      16      16      16      15      15
      14      14      14      13      13      13      12      12      12      11
      11      11      10       9       8       7       6       6       6       6
       5       5       5       4       4       4       3       3       3       3
       3       3    3116    1229     639     363     236     567    2183    2285
     968     522     294     168      98      59      37      25      18      14
     769     252     126      72      44      29      20      16      14      12
      11      11      10      10      10      98      58      37      25      27
      19      15      12      11      10       9       9       9       9       8
       8      43    1016    2529    1197     522     280     158      92     232
      71      40      55    1617     450     269     169      85      51      34
     135     558     173     171      96      60      40      30      68     181
      81      50     265     436     927     527     559     569    1883     565
    1287    1167     493    1165     647     279     166     101      68     479
     166      95      65      49      41      36      62     136     418     809
     250     254     528     204     192     138     369     147      95      68
      53     214     216     103      69     261     164     141     113     521
     251     466     210     394     557     233     140      96      72      91
      90      71      58     103      66      68    1441    2030    1006     490
     279     174     120      86      68      61      54     186     137     128
     112      75      71      61      65    1037     455     360     400     851
     364     367     411     662     770     380     801    2536    1401     606
     345     918     527     312     200     137     103     110     130     287
     254    2349     811     408     240     692     893     595     344    3177
    2309     987     554     443     628     270     172     196     251     594
    1201    1140     632     318     202     144     112     234     125    1690
    1318     728     343     213     149     115     349     762     401     252
     172     161     152     284     152     689     269     168     121      97
      83      75      70      67      65      63      62      61    2128     797
     456     265     171     120      92      75      66      60      56      54
      52      50      49      48      47      46      45      44      44      43
      42      41      83      63      52      45      41      38      37      35
      34      33      32      32      31      30      29      29      28      27
      27      26      25      25      24      24      23      22      22      21
      21      20      20      22      20      19      18      18      17      17
      16      16      15      15      15     373    3034     815     379     205
     118      69      43      29      21      15      11       9       9       8
       7       7       7       6      16       9       7       6       5       5
       5       4       4       4       4       4       4       3       3       3
       3       3       3       3       3       2       2       3       2       2
       2       2       2       2       2       2       2       2      25      10
       6       4       3       2       2       3       3       2       2       2
       2       1       1       1       1       1       1      33      16       8
       5       3       2       2       1       1       1       1       1       1
       1       1       1       1       1       1       1       1       1       1
       1       1       1       1       3       1       1     124      42     200
      63      40      21      16      77      29      14       8      53      22
      12       8       7       5      67      39      16       9       7       5
       5       5       4       4       4       5       5       9       5      19
      27      15     170     208      71      38      23      15      11      14
      88      26      20      12      69      27      65     165      82      53
      32      98     119      68      36      24     205      75      44      82
      67      61      86      61      34      25      21      19      18      17
      17      41      24      22      20      35     244      78      45      33
      32      25      22      20      19      67     299     257     109      61
      42      39      28      24      23      23      44      40     133     763
     940     477     380     242     128      81      57      44      36      32
      30      29      78     405     175      95      97      75      54      52
      46      44      38      35      34      53      63      57      52      44
      38      36      39     165     126      96      80      86      59      48
      42      39      37     158      98      67      52      45      40      43
      38      37      39      36      37      37      37      35      34      34
      33      70      63      46      40      82      48      89     196     133
      79      58      46      40      44      48      78     101      59      46
      79      81     477     587     208     118      79      59      48     223
     168     101      69      53      45      40      37      35      34      33
      33      32      32      32      31      31      30      54     445
Stage Hydrograph TW Check=0
Flow Hydrograph Slope= 0.05 
DSS Path=
Use DSS=False
Use Fixed Start Time=True
Fixed Start Date/Time=02Jan2017,00:00
Is Critical Boundary=False
Critical Boundary Flow=
Boundary Location=                ,                ,        ,        ,                ,NERegion        ,                ,25                              
Interval=1DAY
Flow Hydrograph= 1029
       5       5       5       5       5       5       5       4       4     151
      23      10       6       5       4       4       4       4       3       3
       3       3       3       3       2       2       6      44       8       4
       3       2       2       2       2       2       2       2       2       1
       1       1       1       1       1       1       1       1       1       1
       1       1       1       1       1       1       1       1       1       1
       1       1      34       5       2       1       8       2     240      29
       8       4       2       2       1       1     520      72     238      34
      11       6       4     888     105      46    1385     204      50      92
     371     646      87      28     405      56      23      61      16      10
       9       8       8       8    1369     244      58      35     454     348
    1610    1082     162     283      75      28      18     589      81     910
     126      42     562     274      78      33      21      24    1091     142
     252      53      28    1044    1079     156      92    1007     138     166
      81     558      85      37      95     503      79      36     152     114
     633     123     453     292      63      49      30      51     138     157
     123      39      29      32     226      49     564     112    1099     883
     143      69     103      39      79      34      29      27      30      60
     245     810     121      89     432     149      58      99      76     437
     257     390     143      51      37      32     222      60     563     516
      99      49      78     604     275     290      68      43      40     340
      77      77     486      93     104      63     177     417     172      57
     524     170      59     204     399     374      89     156     137      55
      40     109     146     359      76      45      40     856     289      95
      51      43      89     379     570     175      62     100      63      86
     271      81     198     244      65      43      39      37      35     335
     244     348     440      89      49      39      96      42      36     205
     211     792    1190     605     363      88      50      40      36      34
      42      34      32      31      31     319     136      51      36      32
      30      34    1764     227      78      45      34      30      28      27
      26      25     265      54      32      27      25      24      23      22
      22      22      21      21      20      20      19      19     176     115
      33      23      20      18      17      17      16      16      16      15
      15      15      14      14      14      14      13      13      13      12
      12      12      33      14      12      11      11      10      10      10
      10       9       9       9       9       8       8       8       8       8
       7       7       7       7       7       7       6       6       6       6
       6       6       6       5       5       5       5       5       5       5
       4       4       4       4       4       4       3       3       3       3
       3       3       3       3       3       2       2       2       2       1
       1       1     530     102      25       9      14      52     216     298
      42      15       8       6       5       4       4       4       4       4
     489     467      67      22      11       8       6       6       5       5
       5       5       5       5       5       6       5       5       5       5
       5       5       5       5       5       5       5       5       5       4
       4       4     491    1539     354      75      27      14       9      91
      17       9      34     590      75     109      37      14      34      12
      98     218      35      16      11      10       9       9      10      60
      15      10      28      41     246      87     181      99     665      90
     388     508      78     705     238      52      30      28      17     190
      36      20      16      15      15      14      15      21      56     637
     123     101     189      40      30      27      69      24      19      17
      17      16      16      16      16     144      50      47      37     711
     152     109     188     110     157      41      25      21      20      26
      59      24      21      90      29      36     662     792     185      62
      33      25      25      22      21      31      22     137      64      41
      52      27      23      26      40     522      98      57     158     311
      72      38      75     330     203      86     270    1148     516     102
      60     189      74      41      32      28      27      27      57      89
     117    1436     242      80      44     426     222     239     179    1514
     700     183      79     111     226      57      38      46     142     330
     381     450     188      60      40      35      33      94      41     767
     353     247      66      42      35      32      33      79      37      32
     130      66      53      64      35     245      56      36      31      30
      29      28      28      27      27      26      57      30     805     142
      69      37      29      26      25      24      24      23      23      22
      22      22      21      21      20      20      20      19      19      18
      18      18      18      17      17      16      16      16      15      15
      15      14      14      14      13      13      13      12      12      12
      12      11      11      11      11      10      10      10      10       9
       9       9       9      10       9       8       8       8       7       7
       7       7       7       7       6      99    1182     145      42      19
      11       8       7       6       6       5       5       5       5       4
       4       4       4       4       8       4       4       3       3       3
       3       3       3       2       2       2       2       2       2       2
       2       1       1       1       1       1       1       1       1       1
       1       1       1       1       1       1       1       1       6       2
       1       1       1       1       1       1       1       1       1       1
       1       1       1       1       1       1       1      10       3       1
       1       1       1       1       0       0       0       0       0       0
       0       0       0       0       0       0       0       0       0       0
       0       0       0       0       4       1       1      74      10     105
      14       7       3       3      25       8       6       3      17       4
       3       2       2       2      24      11       4       3       3       3
       3       2       2       2       2       2       2       9       4       3
       3       3      90      79      14       6       4       4       3       3
     139      20      10       6      37       9      26      39      10       7
       5      32      37      19       8       7      54      12      10      50
      20      11      16      20      10       8       8       8       8       8
       8      27      10       9       8      10     145      25      13      10
      19      10       9       9       8      24     270     155      38      17
      12      10      10       9       9       9      16      12      57     512
     566     165     123      65      23      16      13      12      12      12
      12      12      21     161      47      20      16      14      13      13
      30      15      13      13      12      24      15      18      18      14
      13      13      15      72      28      17      16      14      13      13
      13      13      13      38      18      14      13      12      12      12
      12      12      12      12      12      12      12      11      11      11
      11      27      21      13      11      12      11      20      42      18
      13      11      11      11      13      19      29      28      14      12
      31      20     180     201      37      19      14      13      12      89
      47      18      14      12      12      12      11      11      11      11
      11      11      11      11      10      10      10      16     175
Stage Hydrograph TW Check=0
Flow Hydrograph Slope= 0.05 
DSS Path=
Use DSS=False
Use Fixed Start Time=True
Fixed Start Date/Time=02Jan2017,00:00
Is Critical Boundary=False
Critical Boundary Flow=
Boundary Location=                ,                ,        ,        ,                ,NERegion        ,                ,47                              
Interval=1DAY
Flow Hydrograph= 1029
      13      13      13      12      12      12      11      11      11     239
      37      19      13      11      10       9       8       8       7       7
       6       6       5       5       5       4      19      51      11       7
       6       5       4       4       4       3       3       3       3       3
       3       3       3       3       3       2       2       2       2       2
       2       2       2       2       2       2       2       1       1       1
       1       1     146      17       6       4       3       2     802      70
      21       9       6       4       4       4    1151     110     750      75
      26      14      10    1433     124      58    4301     464     111      45
     619      70      31      21    1148     114      51     164      37      26
      23      21      21      21    3460     510     110      51     733     298
    3499    2545     278     891     121      58      42     193      50     408
      95      48    1530     965     218     131      59      56    2411     232
     714     112      76    3495    2718     305     232    2530     264     369
     171     428      94      67      70    1700     189      90     397     252
     880     519    1611     908     159     105      76      78     327     300
     396     102      77     112     876     136      85     106    4588    2647
     333     873     156      95     411     119      83      75      92     305
     709    2076     244    3259    1215     341     174     220     170    1046
     797    1304     370     131      99      89     323     110    2510    1813
     256     132     524    1604     929     341     130     102     122    1177
     186     172    1903     371     283     197     537    1464     415     144
    1248     193     656     149     109     967     313     401     294     124
     106     260     676     974     195     122     138    2613     595     232
     915     175     649    1211    1458     686     175     369     411     247
     740    7106     659     240     147     117     112     102      99    1613
     735    1062     876     182     123     106     288     116     101     769
     545    2900    2431    1263     825     188     125     107     100      96
     122      96      92      90      89    1317     227     128      98      90
      86      99    5139     648     195     117      93      84      80      77
      76      74     106      76      72      70      68      67      65      64
      63      62      60      59      58      57      56      55     554     266
      82      62      55      52      50      49      48      47      46      45
      44      43      42      41      40      39      38      37      36      35
      35      34     130      73      40      34      32      31      30      29
      29      28      27      27      26      25      25      24      23      23
      22      22      21      21      20      20      19      19      18      18
      17      17      17      16      16      15      15      14      14      14
      13      13      13      12      11      11      10      10      10      10
       9       9       8       8       8       8       7       7       6       6
       5       5    2828     313      73      40      29     165     620    2612
     230      70      34      22      18      16      15      15      15      15
    1243     116      42      25      19      17      16      16      16      15
      15      15      15      15      14      55      19      16      15      18
      15      14      14      13      13      13      13      12      12      12
      12      30     720    3405     765     127      51      29      21      77
      24      21      49    1684     153     270      55      31      27      22
     165     716      94      52      32      28      25      24      70     164
      46      31      77     226    1441     545    1090     222    1547     166
    1622    1395     174    1880     394     102      67     137      56     493
      86      57      49      47      45      45      61     192     359      77
     351     103     563      96     122      75     212      68      56      52
      52     450      86      60      53     366     109     142      65     385
     156     460     388     636     524     117      76      65      61     120
     102      66      61     269     123     133    1916     212     331     110
      75      67      68      63      61     247      79     419     193     134
     145      76      68      70      66    1703     314     201     565     754
     283     146     588    1422     662     230     696    4024    1484     249
     163     480     188     120     101      86      83      83     144     371
     354    2760     406     149     104     491     994     575     576    5640
    2119     518     295     158     562     138     105      99     219     878
    1836    1296     351     143     110      99      95     247    2754    2390
    1115     447     152     113     101      95      98     253     107      94
     138     174     158     506     128     532     130      99      91      87
      85      83      82      81      79      78      77      76    2713     308
     196     100      82      76      72      70      69      67      66      65
      64      62      61      60      59      58      56      55      54      53
      52      51      50      49      48      47      46      45      44      43
      42      41      40      39      38      37      36      36      35      34
      33      32      32      31      30      29      29      28      27      27
      26      25      25      27      24      23      23      22      21      21
      20      20      19      19      18     210    2304     212      69      36
      25      21      19      17      16      15      14      14      13      12
      11      11      10       9      39      13       9       8       7       7
       6       6       6       5       5       5       5       5       5       4
       4       4       4       4       4       4       4       3       3       3
       3       3       3       3       3       2       2       3      16       5
       3       3       2       2       2       3       3       3       2       2
       2       2       2       2       2       2       2      38       9       4
       3       2       4       2       2       2       2       2       1       1
       1       1       1       1       1       1       1       1       1       1
       1       1       1       1      11       3       2     130      15     269
      28      21       8      10      60      16       8       7      31       9
       7       6       6       6      50      21      10       8       7       7
       7       6       6       6       6       6       6       9       7       8
       9       8     251     184      29      15      12      10      10      12
     281      35      21      14     108      22      97     159      31      21
      17      82      93      30      21      18     159      32      24      46
      61      31      73      49      27      24      23      23      22      22
      22      73      27      24      22      39     298      49      31      26
      64      29      26      24      24      68     455     271      59      37
      31      28      27      26      26      26      41      30     170    1231
    1316     387     324     139      54      42      38      36      35      34
      34      33      54     385      90      47      46      40      37      53
      57      74      42      38      37      66      43      48      46      40
      38      37      42     164      72      56      46      41      40      39
      38      37      37     398      92      49      42      39      38      37
      36      36      36      35      35      36      36      34      34      33
      33      86      52      37      34     111      41     110     218      96
      46      38      36      35      42      57      80      96      43      37
      68      56     518     561      90      52      43      41      38     235
     134      61      44      40      39      38      37      36      36      35
      35      34      34      33      33      32      32      49     502
Stage Hydrograph TW Check=0
Flow Hydrograph Slope= 0.05 
DSS Path=
Use DSS=False
Use Fixed Start Time=True
Fixed Start Date/Time=02Jan2017,00:00
Is Critical Boundary=False
Critical Boundary Flow=
Boundary Location=                ,                ,        ,        ,                ,NERegion        ,                ,68                              
Interval=1DAY
Flow Hydrograph= 1029
      27      26      61      33      28      26      24      23      22      36
      25      22      21      20      19      19      18      18      17      17
      16      16      15      15      15      14      25      17      15      14
      13      12      12      12      11      10       9       9       9       8
       8       8       8       7       7       7       7       6       6       6
       8       6       6       5       4       4       4       3       3       3
       3       3     224      43      21      12      67      17    1541     230
      97      51      29      18      12     186     276     225     509     104
      53      33     257     826     148     282      89    1719    1678    2996
     529     241    6526    1274    1881     438     234     236     269      96
      64      50      43      39    2106     491     183     108     466    2461
    2867    1278     365     858     220     665     168     316     113     671
     739     183     312     679    2368    3447     654    2601     753     308
    1602     823     253    1332    1788     375     230    1332    1372    2317
    1719    1196     942     879    4420    1022     468     289     913    1665
     844    2033    1250     779    1640     496     242     293     694     285
     969    1697     780    2563    3637    1624     497     287     196    1375
     676    1544    3042    1599    2648    1139     534     583    1849     490
     266    1284     768     580    2335     616     426     332     262    1246
    1052     560     869    1035     829    1246     423     329     806     571
    1443    1877    3139    1022    1050    1025     674     372     304     730
     423    1288    3998    3491    2123    1533    3690    1720     812     993
     630    4075     733     383     256     537     995     360    1418    1069
    2690    1385    1801    2649    2151     750     793    2065    1599     566
    1008    1912    1286    1092     360    2162    1271     592     758     517
    2727    7201    1268     946     600    1197     691     357     297    1024
     396    1211     822     503     430     459     294     196     677    1664
    1002    2351    2574    1785     644     333     290     221     421     436
     205     190     188     152     792     794    3929     710     369     247
     513    1166    3167    3376     723     383     254     190     323     184
     661     281     176     158     142     129     643     199     155     144
     126     264     141     129     117     115     112    1050    1541     716
     360     205     152     127     118     108     103      99      97      95
      93      91      89      88      86      84      83      81      80      78
     101    1100     515     628     193     128     101      87      79      74
      71      69     175      88      95      74      69      65      63      61
      59      58      57      55      54     468    1186     235     130      90
      71      61      55      51      49      48      46      45      44      43
      42      41      41      40      39      38      37      36      36      35
      34      33      33      32      31      31      30      29      28      28
      27      27      26     178     607     131     129      69     515     249
      88      57      43      36      32      30      28      27      26      26
    1324     216     104      64      45      35      30      27      25      24